<?xml version="1.0" encoding="UTF-8" standalone="no"?>
<flow xmlns="urn:opendaylight:flow:inventory">
    <id>2</id>
    <table_id>50</table_id>
	<priority>1</priority>
	<flow-name>mcast flow</flow-name>
	<match>
      <ethernet-match>
	      <ethernet-destination>
             <address>01:00:5e:01:01:01</address>
		     <mask>ff:ff:ff:ff:ff:ff</mask>
		  </ethernet-destination>
	  </ethernet-match>
	  <vlan-match>
	      <vlan-id>
		      <vlan-id>10</vlan-id>
		      <vlan-id-present>true</vlan-id-present>
		  </vlan-id>
	  </vlan-match>
	</match>
    <instructions>
	    <instruction>
		    <order>0</order>
            <write-actions>
                <action>
				    <order>0</order>
				    <group-action>
					    <group-id>0x300a0001</group-id>
					</group-action>
                </action>
			</write-actions>
		</instruction>	
	    <instruction>
		    <order>1</order>
			<go-to-table>
			    <table_id>60</table_id>
			</go-to-table>
		</instruction>
	</instructions>
</flow>
